16
H10 C4 O2
C	-0.4747680	0.2721990	2.2998460
H	-0.9766750	1.2360820	2.1522920
H	0.5366160	0.4593880	2.6771470
H	-1.0218220	-0.2997830	3.0460510
O	-0.4747680	-0.4947100	1.1139980
C	0.1076430	0.1390900	0.0000000
H	-0.1788910	1.2048380	0.0000000
H	2.0627900	0.4638770	0.8802620
C	1.6244310	-0.0071520	0.0000000
H	2.0627900	0.4638770	-0.8802620
H	1.8781430	-1.0666250	0.0000000
O	-0.4747680	-0.4947100	-1.1139980
C	-0.4747680	0.2721990	-2.2998460
H	0.5366160	0.4593880	-2.6771470
H	-1.0218220	-0.2997830	-3.0460510
H	-0.9766750	1.2360820	-2.1522920
